STAAD SPACE
START JOB INFORMATION
ENGINEER DATE 12-Aug-26
JOB NAME CE4102P_G+4_Residential_Building
END JOB INFORMATION
INPUT WIDTH 79
UNIT METER KN
JOINT COORDINATES
101 0 0.6 0; 102 0 0.6 5.5; 103 0 0.6 11; 104 4.5 0.6 0; 105 4.5 0.6 5.5;
106 4.5 0.6 11; 107 6.5 0.6 0; 108 6.5 0.6 5.5; 109 6.5 0.6 11; 110 11 0.6 0;
111 11 0.6 5.5; 112 11 0.6 11; 113 13 0.6 0; 114 13 0.6 5.5; 115 13 0.6 11;
116 17.5 0.6 0; 117 17.5 0.6 5.5; 118 17.5 0.6 11; 201 0 3.6 0; 202 0 3.6 5.5;
203 0 3.6 11; 204 4.5 3.6 0; 205 4.5 3.6 5.5; 206 4.5 3.6 11; 207 6.5 3.6 0;
208 6.5 3.6 5.5; 209 6.5 3.6 11; 210 11 3.6 0; 211 11 3.6 5.5; 212 11 3.6 11;
213 13 3.6 0; 214 13 3.6 5.5; 215 13 3.6 11; 216 17.5 3.6 0; 217 17.5 3.6 5.5;
218 17.5 3.6 11; 301 0 6.6 0; 302 0 6.6 5.5; 303 0 6.6 11; 304 4.5 6.6 0;
305 4.5 6.6 5.5; 306 4.5 6.6 11; 307 6.5 6.6 0; 308 6.5 6.6 5.5;
309 6.5 6.6 11; 310 11 6.6 0; 311 11 6.6 5.5; 312 11 6.6 11; 313 13 6.6 0;
314 13 6.6 5.5; 315 13 6.6 11; 316 17.5 6.6 0; 317 17.5 6.6 5.5;
318 17.5 6.6 11; 401 0 9.6 0; 402 0 9.6 5.5; 403 0 9.6 11; 404 4.5 9.6 0;
405 4.5 9.6 5.5; 406 4.5 9.6 11; 407 6.5 9.6 0; 408 6.5 9.6 5.5;
409 6.5 9.6 11; 410 11 9.6 0; 411 11 9.6 5.5; 412 11 9.6 11; 413 13 9.6 0;
414 13 9.6 5.5; 415 13 9.6 11; 416 17.5 9.6 0; 417 17.5 9.6 5.5;
418 17.5 9.6 11; 501 0 12.6 0; 502 0 12.6 5.5; 503 0 12.6 11; 504 4.5 12.6 0;
505 4.5 12.6 5.5; 506 4.5 12.6 11; 507 6.5 12.6 0; 508 6.5 12.6 5.5;
509 6.5 12.6 11; 510 11 12.6 0; 511 11 12.6 5.5; 512 11 12.6 11; 513 13 12.6 0;
514 13 12.6 5.5; 515 13 12.6 11; 516 17.5 12.6 0; 517 17.5 12.6 5.5;
518 17.5 12.6 11; 601 0 15.6 0; 602 0 15.6 5.5; 603 0 15.6 11; 604 4.5 15.6 0;
# ... 8 like lines cut
MEMBER INCIDENCES
1 101 201; 2 102 202; 3 103 203; 4 104 204; 5 105 205; 6 106 206; 7 107 207;
8 108 208; 9 109 209; 10 110 210; 11 111 211; 12 112 212; 13 113 213;
14 114 214; 15 115 215; 16 116 216; 17 117 217; 18 118 218; 19 201 301;
20 202 302; 21 203 303; 22 204 304; 23 205 305; 24 206 306; 25 207 307;
26 208 308; 27 209 309; 28 210 310; 29 211 311; 30 212 312; 31 213 313;
32 214 314; 33 215 315; 34 216 316; 35 217 317; 36 218 318; 37 301 401;
38 302 402; 39 303 403; 40 304 404; 41 305 405; 42 306 406; 43 307 407;
44 308 408; 45 309 409; 46 310 410; 47 311 411; 48 312 412; 49 313 413;
50 314 414; 51 315 415; 52 316 416; 53 317 417; 54 318 418; 55 401 501;
56 402 502; 57 403 503; 58 404 504; 59 405 505; 60 406 506; 61 407 507;
62 408 508; 63 409 509; 64 410 510; 65 411 511; 66 412 512; 67 413 513;
68 414 514; 69 415 515; 70 416 516; 71 417 517; 72 418 518; 73 501 601;
74 502 602; 75 503 603; 76 504 604; 77 505 605; 78 506 606; 79 507 607;
80 508 608; 81 509 609; 82 510 610; 83 511 611; 84 512 612; 85 513 613;
86 514 614; 87 515 615; 88 516 616; 89 517 617; 90 518 618; 106 201 204;
107 204 207; 108 207 210; 109 210 213; 110 213 216; 111 202 205; 112 205 208;
113 208 211; 114 211 214; 115 214 217; 116 203 206; 117 206 209; 118 209 212;
119 212 215; 120 215 218; 121 301 304; 122 304 307; 123 307 310; 124 310 313;
125 313 316; 126 302 305; 127 305 308; 128 308 311; 129 311 314; 130 314 317;
131 303 306; 132 306 309; 133 309 312; 134 312 315; 135 315 318; 136 401 404;
# ... 25 like lines cut
* ---- STAIR & LIFT CORE landing plates (visual marker for both 2.00 m bays: B-C and D-E) ----
ELEMENT INCIDENCES
501 204 207 208 205
502 205 208 209 206
503 210 213 214 211
504 211 214 215 212
505 304 307 308 305
506 305 308 309 306
507 310 313 314 311
508 311 314 315 312
509 404 407 408 405
510 405 408 409 406
511 410 413 414 411
512 411 414 415 412
513 504 507 508 505
514 505 508 509 506
515 510 513 514 511
516 511 514 515 512
517 604 607 608 605
518 605 608 609 606
519 610 613 614 611
520 611 614 615 612
# ... 4 like lines cut
MEMBER PROPERTY INDIAN
1 TO 54 PRIS YD 0.6 ZD 0.3
55 TO 90 253 TO 270 PRIS YD 0.45 ZD 0.3
106 TO 180 193 TO 252 271 TO 297 PRIS YD 0.45 ZD 0.23
ELEMENT PROPERTY
501 TO 524 THICKNESS 0.125
DEFINE MATERIAL START
ISOTROPIC CONCRETE
E 2.5e+07
POISSON 0.17
DENSITY 24
ALPHA 1e-05
DAMP 0.05
TYPE CONCRETE
STRENGTH FCU 25000
G 9.28137e+06
END DEFINE MATERIAL
CONSTANTS
MATERIAL CONCRETE ALL
SUPPORTS
101 TO 118 FIXED
DEFINE WIND LOAD
TYPE 1 WIND 1
<! STAAD PRO GENERATED DATA DO NOT MODIFY !!!
IS875-2015:PARAMS 0 0 0 18.600 0.000 5.000 0 GUWAHATI 50.000 0 1.000 2 5 -
0.910 0.910 0.910 0.970 0.999 1.000 2 1.000 0.200 0 17.500 11.000 18.000 0 0 -
0 1.000 0 0 0.200 1.000 0 1.000 1.000 1.000
!> END GENERATED DATA BLOCK
INT 1.242 1.242 1.242 1.411 1.496 HEIG  0  5  10  15  18.6
LOAD 1 LOADTYPE Dead  TITLE SELF WEIGHT
SELFWEIGHT Y -1 
LOAD 2 LOADTYPE Dead  TITLE WALL LOAD ON BEAMS
MEMBER LOAD
106 TO 110 116 TO 125 131 TO 140 146 TO 155 161 TO 165 193 194 203 TO 206 -
215 TO 218 227 TO 230 239 240 UNI GY -13.2
111 TO 115 126 TO 130 141 TO 145 156 TO 160 195 TO 202 207 TO 214 219 TO 226 -
231 TO 238 UNI GY -7.6
LOAD 3 LOADTYPE Live  TITLE LIVE LOAD ON FLOORS (RESIDENTIAL + STAIR/LIFT CORE)
FLOOR LOAD
YRANGE 3.5 3.7 FLOAD -2 XRANGE 0 4.5  ZRANGE 0 11  GY
YRANGE 3.5 3.7 FLOAD -2 XRANGE 6.5 11  ZRANGE 0 11  GY
YRANGE 3.5 3.7 FLOAD -2 XRANGE 13 17.5  ZRANGE 0 11  GY
YRANGE 3.5 3.7 FLOAD -3 XRANGE 4.5 6.5  ZRANGE 0 11  GY
YRANGE 3.5 3.7 FLOAD -3 XRANGE 11 13  ZRANGE 0 11  GY
YRANGE 6.5 6.7 FLOAD -2 XRANGE 0 4.5  ZRANGE 0 11  GY
YRANGE 6.5 6.7 FLOAD -2 XRANGE 6.5 11  ZRANGE 0 11  GY
YRANGE 6.5 6.7 FLOAD -2 XRANGE 13 17.5  ZRANGE 0 11  GY
YRANGE 6.5 6.7 FLOAD -3 XRANGE 4.5 6.5  ZRANGE 0 11  GY
YRANGE 6.5 6.7 FLOAD -3 XRANGE 11 13  ZRANGE 0 11  GY
YRANGE 9.5 9.7 FLOAD -2 XRANGE 0 4.5  ZRANGE 0 11  GY
YRANGE 9.5 9.7 FLOAD -2 XRANGE 6.5 11  ZRANGE 0 11  GY
YRANGE 9.5 9.7 FLOAD -2 XRANGE 13 17.5  ZRANGE 0 11  GY
YRANGE 9.5 9.7 FLOAD -3 XRANGE 4.5 6.5  ZRANGE 0 11  GY
YRANGE 9.5 9.7 FLOAD -3 XRANGE 11 13  ZRANGE 0 11  GY
YRANGE 12.5 12.7 FLOAD -2 XRANGE 0 4.5  ZRANGE 0 11  GY
YRANGE 12.5 12.7 FLOAD -2 XRANGE 6.5 11  ZRANGE 0 11  GY
YRANGE 12.5 12.7 FLOAD -2 XRANGE 13 17.5  ZRANGE 0 11  GY
YRANGE 12.5 12.7 FLOAD -3 XRANGE 4.5 6.5  ZRANGE 0 11  GY
YRANGE 12.5 12.7 FLOAD -3 XRANGE 11 13  ZRANGE 0 11  GY
# ... 6 like lines cut
LOAD 6 LOADTYPE Wind  TITLE WIND +X
WIND LOAD X 1 TYPE 1
LOAD 7 LOADTYPE Wind  TITLE WIND -X
WIND LOAD -X 1 TYPE 1
LOAD 8 LOADTYPE Wind  TITLE WIND +Z
WIND LOAD Z 1 TYPE 1
LOAD 9 LOADTYPE Wind  TITLE WIND -Z
WIND LOAD -Z 1 TYPE 1
LOAD 14 LOADTYPE Seismic-H  TITLE MODAL - NATURAL FREQUENCY ANALYSIS
SELFWEIGHT X 1 
SELFWEIGHT Y -1 
SELFWEIGHT Z 1 
MEMBER LOAD
106 TO 110 116 TO 125 131 TO 140 146 TO 155 161 TO 165 193 194 203 TO 206 -
215 TO 218 227 TO 230 239 240 UNI GY -13.2
111 TO 115 126 TO 130 141 TO 145 156 TO 160 195 TO 202 207 TO 214 219 TO 226 -
231 TO 238 UNI GY -7.6
FLOOR LOAD
YRANGE 3.5 3.7 FLOAD -4.13 XRANGE 0 4.5  ZRANGE 0 11  GY
YRANGE 3.5 3.7 FLOAD -4.13 XRANGE 6.5 11  ZRANGE 0 11  GY
YRANGE 3.5 3.7 FLOAD -4.13 XRANGE 13 17.5  ZRANGE 0 11  GY
YRANGE 6.5 6.7 FLOAD -4.13 XRANGE 0 4.5  ZRANGE 0 11  GY
YRANGE 6.5 6.7 FLOAD -4.13 XRANGE 6.5 11  ZRANGE 0 11  GY
YRANGE 6.5 6.7 FLOAD -4.13 XRANGE 13 17.5  ZRANGE 0 11  GY
YRANGE 9.5 9.7 FLOAD -4.13 XRANGE 0 4.5  ZRANGE 0 11  GY
YRANGE 9.5 9.7 FLOAD -4.13 XRANGE 6.5 11  ZRANGE 0 11  GY
YRANGE 9.5 9.7 FLOAD -4.13 XRANGE 13 17.5  ZRANGE 0 11  GY
YRANGE 12.5 12.7 FLOAD -4.13 XRANGE 0 4.5  ZRANGE 0 11  GY
YRANGE 12.5 12.7 FLOAD -4.13 XRANGE 6.5 11  ZRANGE 0 11  GY
YRANGE 12.5 12.7 FLOAD -4.13 XRANGE 13 17.5  ZRANGE 0 11  GY
YRANGE 15.5 15.7 FLOAD -4.63 XRANGE 0 4.5  ZRANGE 0 11  GY
YRANGE 15.5 15.7 FLOAD -4.63 XRANGE 6.5 11  ZRANGE 0 11  GY
YRANGE 15.5 15.7 FLOAD -4.63 XRANGE 13 17.5  ZRANGE 0 11  GY
YRANGE 18.5 18.7 FLOAD -4.63 XRANGE 0 4.5  ZRANGE 0 11  GY
YRANGE 18.5 18.7 FLOAD -4.63 XRANGE 6.5 11  ZRANGE 0 11  GY
YRANGE 18.5 18.7 FLOAD -4.63 XRANGE 13 17.5  ZRANGE 0 11  GY
YRANGE 3.5 3.7 FLOAD -0.5 XRANGE 0 4.5  ZRANGE 0 11  GY
YRANGE 3.5 3.7 FLOAD -0.5 XRANGE 6.5 11  ZRANGE 0 11  GY
# ... 23 like lines cut
MODAL CALCULATION REQUESTED
* ---- SLAB DEAD LOAD (added): RCC self-weight + finishes, not covered by LOAD 1/2 ----
* Typical floor slab assumed 125 mm: 0.125 x 25 kN/m3 + 1.0 kN/m2 finish = 4.13 kN/m2
* Terrace/roof slab assumed 125 mm + 1.5 kN/m2 waterproofing/finish = 4.63 kN/m2
* Confirm actual slab thickness from your design brief and adjust if different.
LOAD 15 LOADTYPE Dead  TITLE SLAB DEAD LOAD (SELF WEIGHT + FINISHES, RESIDENTIAL BAYS ONLY)
* Stair/lift core bays (B-C, D-E) excluded here: their slab self-weight now
* comes automatically from the real plate elements 501-524 (see SELFWEIGHT).
FLOOR LOAD
YRANGE 3.5 3.7 FLOAD -4.13 XRANGE 0 4.5  ZRANGE 0 11  GY
YRANGE 3.5 3.7 FLOAD -4.13 XRANGE 6.5 11  ZRANGE 0 11  GY
YRANGE 3.5 3.7 FLOAD -4.13 XRANGE 13 17.5  ZRANGE 0 11  GY
YRANGE 6.5 6.7 FLOAD -4.13 XRANGE 0 4.5  ZRANGE 0 11  GY
YRANGE 6.5 6.7 FLOAD -4.13 XRANGE 6.5 11  ZRANGE 0 11  GY
YRANGE 6.5 6.7 FLOAD -4.13 XRANGE 13 17.5  ZRANGE 0 11  GY
YRANGE 9.5 9.7 FLOAD -4.13 XRANGE 0 4.5  ZRANGE 0 11  GY
YRANGE 9.5 9.7 FLOAD -4.13 XRANGE 6.5 11  ZRANGE 0 11  GY
YRANGE 9.5 9.7 FLOAD -4.13 XRANGE 13 17.5  ZRANGE 0 11  GY
YRANGE 12.5 12.7 FLOAD -4.13 XRANGE 0 4.5  ZRANGE 0 11  GY
YRANGE 12.5 12.7 FLOAD -4.13 XRANGE 6.5 11  ZRANGE 0 11  GY
YRANGE 12.5 12.7 FLOAD -4.13 XRANGE 13 17.5  ZRANGE 0 11  GY
YRANGE 15.5 15.7 FLOAD -4.63 XRANGE 0 4.5  ZRANGE 0 11  GY
YRANGE 15.5 15.7 FLOAD -4.63 XRANGE 6.5 11  ZRANGE 0 11  GY
YRANGE 15.5 15.7 FLOAD -4.63 XRANGE 13 17.5  ZRANGE 0 11  GY
YRANGE 18.5 18.7 FLOAD -4.63 XRANGE 0 4.5  ZRANGE 0 11  GY
YRANGE 18.5 18.7 FLOAD -4.63 XRANGE 6.5 11  ZRANGE 0 11  GY
YRANGE 18.5 18.7 FLOAD -4.63 XRANGE 13 17.5  ZRANGE 0 11  GY
LOAD COMB 4 SERVICE DL+LL
1 1.0 2 1.0 3 1.0 15 1.0 
LOAD COMB 5 ULTIMATE 1.5(DL+LL)
1 1.5 2 1.5 3 1.5 15 1.5 
LOAD COMB 10 COMBINATION LOAD WIND +ULT
1 1.2 2 1.2 3 1.2 15 1.2 6 1.2 
LOAD COMB 11 COMBINATION LOAD CASE 11
1 1.2 2 1.2 3 1.2 15 1.2 8 1.2 
LOAD COMB 12 COMBINATION LOAD CASE 12
1 1.2 2 1.2 3 1.2 15 1.2 7 1.2 
LOAD COMB 13 COMBINATION LOAD CASE 13
1 1.2 2 1.2 3 1.2 15 1.2 9 1.2 
PERFORM ANALYSIS PRINT ALL
PRINT MODE SHAPES
PRINT SUPPORT REACTION
PRINT MEMBER FORCES ALL
LOAD LIST 1 TO 15
FINISH
